Version 4
SHEET 1 1920 680
WIRE 336 -128 240 -128
WIRE 560 -128 464 -128
WIRE 240 -96 240 -128
WIRE 464 -96 464 -128
WIRE 560 -96 560 -128
WIRE 336 -80 336 -128
WIRE 240 16 240 -16
WIRE 320 16 240 16
WIRE 464 16 464 -16
WIRE 528 16 464 16
WIRE 160 128 -64 128
WIRE 272 128 160 128
WIRE 416 128 272 128
WIRE 1376 128 416 128
WIRE 1504 128 1376 128
WIRE 1664 128 1504 128
WIRE -64 144 -64 128
WIRE 272 144 272 128
WIRE 1664 144 1664 128
WIRE 160 160 160 128
WIRE 416 192 416 128
WIRE 1168 224 1152 224
WIRE 1248 224 1232 224
WIRE 1376 224 1376 208
WIRE 1376 224 1248 224
WIRE 1408 224 1376 224
WIRE 1504 224 1504 208
WIRE 1504 224 1472 224
WIRE -64 240 -144 240
WIRE 160 240 160 224
WIRE 160 240 16 240
WIRE 272 240 272 224
WIRE 272 240 160 240
WIRE 352 240 272 240
WIRE 1504 240 1504 224
WIRE 1376 272 1376 224
WIRE 1664 288 1664 224
WIRE 1744 288 1664 288
WIRE 416 320 416 288
WIRE 480 320 416 320
WIRE 624 320 560 320
WIRE 704 320 624 320
WIRE 848 320 768 320
WIRE 928 320 848 320
WIRE 1088 320 1088 224
WIRE 1088 320 1008 320
WIRE 1248 320 1248 304
WIRE 1248 320 1152 320
WIRE 1312 320 1248 320
WIRE 1664 320 1664 288
WIRE 624 336 624 320
WIRE 1504 368 1504 320
WIRE 1584 368 1584 288
WIRE 1584 368 1568 368
WIRE 1600 368 1584 368
WIRE 1168 384 1168 224
WIRE 1248 384 1248 320
WIRE 1376 384 1376 368
WIRE 1248 464 1168 464
WIRE 1664 464 1664 416
WIRE 1168 480 1168 464
WIRE 416 544 416 400
WIRE 416 544 -144 544
WIRE 624 544 624 400
WIRE 624 544 416 544
WIRE 848 544 848 400
WIRE 848 544 624 544
WIRE 1168 544 848 544
WIRE 1376 544 1168 544
WIRE 1664 544 1376 544
FLAG -64 144 0
FLAG -144 240 SDD
IOPIN -144 240 In
FLAG -144 544 -15v
IOPIN -144 544 In
FLAG 336 -80 0
FLAG 320 16 -15V
IOPIN 320 16 Out
FLAG 560 -96 0
FLAG 528 16 SDD
IOPIN 528 16 Out
SYMBOL res -80 256 R270
WINDOW 0 32 56 VTop 2
WINDOW 3 0 56 VBottom 2
SYMATTR InstName R1
SYMATTR Value 5.6k
SYMBOL diode 176 224 R180
WINDOW 0 24 64 Left 2
WINDOW 3 24 0 Left 2
SYMATTR InstName D1
SYMBOL res 256 128 R0
SYMATTR InstName R2
SYMATTR Value 100k
SYMBOL pnp 352 288 M180
SYMATTR InstName Q1
SYMBOL res 400 304 R0
SYMATTR InstName R3
SYMATTR Value 100k
SYMBOL cap 608 336 R0
SYMATTR InstName C1
SYMATTR Value 3.3µ
SYMBOL res 832 304 R0
SYMATTR InstName R4
SYMATTR Value 15k
SYMBOL diode 704 336 R270
WINDOW 0 32 32 VTop 2
WINDOW 3 0 32 VBottom 2
SYMATTR InstName D2
SYMBOL res 576 304 R90
WINDOW 0 0 56 VBottom 2
WINDOW 3 32 56 VTop 2
SYMATTR InstName R5
SYMATTR Value 1k
SYMBOL res 1024 304 R90
WINDOW 0 0 56 VBottom 2
WINDOW 3 32 56 VTop 2
SYMATTR InstName R6
SYMATTR Value 8.2k
SYMBOL cap 1152 336 M270
WINDOW 0 32 32 VTop 2
WINDOW 3 0 32 VBottom 2
SYMATTR InstName C2
SYMATTR Value 22p
SYMBOL cap 1152 240 M270
WINDOW 0 32 32 VTop 2
WINDOW 3 0 32 VBottom 2
SYMATTR InstName C3
SYMATTR Value 22p
SYMBOL res 1152 368 R0
SYMATTR InstName R7
SYMATTR Value 27k
SYMBOL cap 1152 480 R0
SYMATTR InstName C4
SYMATTR Value 56p
SYMBOL res 1232 368 R0
SYMATTR InstName R8
SYMATTR Value 27k
SYMBOL cap 1232 208 R90
WINDOW 0 0 32 VBottom 2
WINDOW 3 32 32 VTop 2
SYMATTR InstName C5
SYMATTR Value 1µ
SYMBOL npn 1312 272 R0
SYMATTR InstName Q2
SYMBOL res 1232 208 R0
SYMATTR InstName R9
SYMATTR Value 1000k
SYMBOL res 1360 368 R0
SYMATTR InstName R10
SYMATTR Value 100R
SYMBOL res 1360 448 R0
SYMATTR InstName R11
SYMATTR Value 100R
SYMBOL res 1360 112 R0
SYMATTR InstName R12
SYMATTR Value 22k
SYMBOL cap 1472 208 R90
WINDOW 0 0 32 VBottom 2
WINDOW 3 32 32 VTop 2
SYMATTR InstName C6
SYMATTR Value 1µ
SYMBOL res 1488 112 R0
SYMATTR InstName R13
SYMATTR Value 39k
SYMBOL res 1488 224 R0
SYMATTR InstName R14
SYMATTR Value 56k
SYMBOL cap 1504 384 R270
WINDOW 0 32 32 VTop 2
WINDOW 3 0 32 VBottom 2
SYMATTR InstName C7
SYMATTR Value 1µ
SYMBOL npn 1600 320 R0
SYMATTR InstName Q3
SYMBOL res 1648 128 R0
SYMATTR InstName R15
SYMATTR Value 10k
SYMBOL res 1680 272 R90
WINDOW 0 0 56 VBottom 2
WINDOW 3 32 56 VTop 2
SYMATTR InstName R16
SYMATTR Value 560k
SYMBOL res 1648 448 R0
SYMATTR InstName R17
SYMATTR Value 2.2k
SYMBOL voltage 240 -112 R0
WINDOW 123 0 0 Left 0
WINDOW 39 24 44 Left 2
SYMATTR InstName V1
SYMATTR Value 15V
SYMBOL voltage 464 -112 R0
WINDOW 123 0 0 Left 0
WINDOW 39 0 0 Left 0
SYMATTR InstName V2
SYMATTR Value PULSE(0 15 0.01 0 0 0.03 1 3)
TEXT -254 620 Left 2 !.tran 3
