* Bipolar Silizium PNP Transistoren
*$ model description: "2n2605"
*b Device model created by analog_uprev for 2n2605 on Fri Feb  9 00:08:30 IST 2001
.subckt 2n2605 C B E
+ params:
+ IC_VCE=1.10250E-36
+ IC_VBE=1.10250E-36
+ STATE=1
+ TEMP=0
+ AREA=1.0
+ STATE_FACTOR=0
+ IS=10E-15
+ BF=220
+ NF=1
+ VAF=100
+ IKF=20E-3
+ ISE=1.39E-15
+ NE=1.2874
+ BR=1.0
+ NR=1
+ VAR=100
+ IKR=0.02
+ ISC=0
+ NC=1
+ RB=100
+ RBM=100
+ RE=0.1
+ RC=2.0
+ CJE=8E-12
+ VJE=0.7
+ MJE=0.4
+ TF=5.3E-9
+ XTF=0.5
+ VTF=10
+ ITF=0.100
+ PTF=0
+ CJC=4.0E-12
+ VJC=0.7
+ MJC=0.4
+ XCJC=0.5
+ TR=20E-9
+ CJS=0
+ VJS=0.7
+ MJS=0.5
+ XTB=1.714
+ EG=1.11
+ XTI=3.0
+ KF=0
+ AF=1
+ FC=0.5
Q2n2605_0 C B E model7 {area} {STATE} ic= {UIC(ic_vbe)},{UIC(ic_vce)} 
.model model7 pnp
+  is={IS}
+  bf={BF}
+  nf={NF}
+  vaf={VAF}
+  ikf={IKF}
+  ise={ISE}
+  ne={NE}
+  br={BR}
+  nr={NR}
+  var={VAR}
+  ikr={IKR}
+  isc={ISC}
+  nc={NC}
+  rb={RB}
+  rbm={RBM}
+  re={RE}
+  rc={RC}
+  cje={CJE}
+  vje={VJE}
+  mje={MJE}
+  tf={TF}
+  xtf={XTF}
+  vtf={VTF}
+  itf={ITF}
+  ptf={PTF}
+  cjc={CJC}
+  vjc={VJC}
+  mjc={MJC}
+  xcjc={XCJC}
+  tr={TR}
+  cjs={CJS}
+  vjs={VJS}
+  mjs={MJS}
+  xtb={XTB}
+  eg={EG}
+  xti={XTI}
+  kf={KF}
+  af={AF}
+  fc={FC}
+ 
.ends  2n2605
*$ end model description: "2n2605"
*
*
*$ model description: "2n2894"
*b Device model created by analog_uprev for 2n2894 on Fri Feb  9 00:08:30 IST 2001
.subckt 2n2894 C B E
+ params:
+ IC_VCE=1.10250E-36
+ IC_VBE=1.10250E-36
+ STATE=1
+ TEMP=0
+ AREA=1.0
+ STATE_FACTOR=0
+ IS=7.92E-15
+ BF=170
+ NF=1
+ VAF=15
+ IKF=70E-3
+ ISE=29.35E-12
+ NE=2.455
+ BR=3.2
+ NR=1
+ VAR=15
+ IKR=0.07
+ ISC=0
+ NC=1
+ RB=80
+ IRB=0.005
+ RBM=17
+ RE=0.01
+ RC=1.8
+ CJE=4.6E-12
+ VJE=0.6
+ MJE=0.339
+ TF=0.398E-9
+ XTF=1
+ VTF=15
+ ITF=0.200
+ PTF=0
+ CJC=10.77E-12
+ VJC=1.2
+ MJC=0.821
+ XCJC=0.5
+ TR=19.4E-9
+ CJS=0
+ VJS=0.7
+ MJS=0.5
+ XTB=1.5
+ EG=1.11
+ XTI=3.0
+ KF=0
+ AF=1
+ FC=0.5
Q2n2894_0 C B E model7 {area} {STATE} ic= {UIC(ic_vbe)},{UIC(ic_vce)} 
.model model7 pnp
+  is={IS}
+  bf={BF}
+  nf={NF}
+  vaf={VAF}
+  ikf={IKF}
+  ise={ISE}
+  ne={NE}
+  br={BR}
+  nr={NR}
+  var={VAR}
+  ikr={IKR}
+  isc={ISC}
+  nc={NC}
+  rb={RB}
+  irb={IRB}
+  rbm={RBM}
+  re={RE}
+  rc={RC}
+  cje={CJE}
+  vje={VJE}
+  mje={MJE}
+  tf={TF}
+  xtf={XTF}
+  vtf={VTF}
+  itf={ITF}
+  ptf={PTF}
+  cjc={CJC}
+  vjc={VJC}
+  mjc={MJC}
+  xcjc={XCJC}
+  tr={TR}
+  cjs={CJS}
+  vjs={VJS}
+  mjs={MJS}
+  xtb={XTB}
+  eg={EG}
+  xti={XTI}
+  kf={KF}
+  af={AF}
+  fc={FC}
+ 
.ends  2n2894
*$ end model description: "2n2894"
*
*
*$ model description: "2n2904"
*b Device model created by analog_uprev for 2n2904 on Fri Feb  9 00:08:30 IST 2001
.subckt 2n2904 C B E
+ params:
+ IC_VCE=1.10250E-36
+ IC_VBE=1.10250E-36
+ STATE=1
+ TEMP=0
+ AREA=1.0
+ STATE_FACTOR=0
+ IS=140.81E-15
+ BF=80
+ NF=1.073
+ VAF=125
+ IKF=0.5
+ ISE=964.74E-15
+ NE=1.74
+ BR=4.12
+ NR=1.073
+ VAR=500
+ ISC=0.0
+ NC=1.0
+ RB=7.0
+ RBM=7.0
+ RE=0.05
+ RC=0.8
+ CJE=29E-12
+ VJE=1.0
+ MJE=0.252
+ TF=636.62E-12
+ XTF=22.59
+ VTF=2.96
+ ITF=617.73E-3
+ PTF=0.0
+ CJC=16E-12
+ VJC=1.91
+ MJC=0.633
+ XCJC=0.5
+ TR=43.55E-9
+ CJS=0
+ VJS=0.7
+ MJS=0.5
+ XTB=2.46
+ EG=1.11
+ XTI=3.0
+ KF=0
+ AF=1
+ FC=0.5
Q2n2904_0 C B E model7 {area} {STATE} ic= {UIC(ic_vbe)},{UIC(ic_vce)} 
.model model7 pnp
+  is={IS}
+  bf={BF}
+  nf={NF}
+  vaf={VAF}
+  ikf={IKF}
+  ise={ISE}
+  ne={NE}
+  br={BR}
+  nr={NR}
+  var={VAR}
+  isc={ISC}
+  nc={NC}
+  rb={RB}
+  rbm={RBM}
+  re={RE}
+  rc={RC}
+  cje={CJE}
+  vje={VJE}
+  mje={MJE}
+  tf={TF}
+  xtf={XTF}
+  vtf={VTF}
+  itf={ITF}
+  ptf={PTF}
+  cjc={CJC}
+  vjc={VJC}
+  mjc={MJC}
+  xcjc={XCJC}
+  tr={TR}
+  cjs={CJS}
+  vjs={VJS}
+  mjs={MJS}
+  xtb={XTB}
+  eg={EG}
+  xti={XTI}
+  kf={KF}
+  af={AF}
+  fc={FC}
+ 
.ends  2n2904
*$ end model description: "2n2904"
*
*
*$ model description: "2n2904a"
*b Device model created by analog_uprev for 2n2904a on Fri Feb  9 00:08:30 IST 2001
.subckt 2n2904a C B E
+ params:
+ IC_VCE=1.10250E-36
+ IC_VBE=1.10250E-36
+ STATE=1
+ TEMP=0
+ AREA=1.0
+ STATE_FACTOR=0
+ IS=140.81E-15
+ BF=100
+ NF=1.073
+ VAF=125
+ IKF=0.5
+ ISE=964.74E-15
+ NE=1.74
+ BR=4.12
+ NR=1.073
+ VAR=500
+ ISC=0.0
+ NC=1.0
+ RB=7.0
+ RBM=7.0
+ RE=0.05
+ RC=0.8
+ CJE=29E-12
+ VJE=1.0
+ MJE=0.252
+ TF=636.62E-12
+ XTF=22.59
+ VTF=2.96
+ ITF=617.73E-3
+ PTF=0.0
+ CJC=16E-12
+ VJC=1.91
+ MJC=0.633
+ XCJC=0.5
+ TR=43.55E-9
+ CJS=0
+ VJS=0.7
+ MJS=0.5
+ XTB=2.46
+ EG=1.11
+ XTI=3.0
+ KF=0
+ AF=1
+ FC=0.5
Q2n2904a_0 C B E model7 {area} {STATE} ic= {UIC(ic_vbe)},{UIC(ic_vce)} 
.model model7 pnp
+  is={IS}
+  bf={BF}
+  nf={NF}
+  vaf={VAF}
+  ikf={IKF}
+  ise={ISE}
+  ne={NE}
+  br={BR}
+  nr={NR}
+  var={VAR}
+  isc={ISC}
+  nc={NC}
+  rb={RB}
+  rbm={RBM}
+  re={RE}
+  rc={RC}
+  cje={CJE}
+  vje={VJE}
+  mje={MJE}
+  tf={TF}
+  xtf={XTF}
+  vtf={VTF}
+  itf={ITF}
+  ptf={PTF}
+  cjc={CJC}
+  vjc={VJC}
+  mjc={MJC}
+  xcjc={XCJC}
+  tr={TR}
+  cjs={CJS}
+  vjs={VJS}
+  mjs={MJS}
+  xtb={XTB}
+  eg={EG}
+  xti={XTI}
+  kf={KF}
+  af={AF}
+  fc={FC}
+ 
.ends  2n2904a
*$ end model description: "2n2904a"
*
*
*$ model description: "2n2905"
*b Device model created by analog_uprev for 2n2905 on Fri Feb  9 00:08:30 IST 2001
.subckt 2n2905 C B E
+ params:
+ IC_VCE=1.10250E-36
+ IC_VBE=1.10250E-36
+ STATE=1
+ TEMP=0
+ AREA=1.0
+ STATE_FACTOR=0
+ IS=140.81E-15
+ BF=150
+ NF=1.073
+ VAF=125
+ IKF=0.5
+ ISE=964.74E-15
+ NE=1.74
+ BR=4.12
+ NR=1.073
+ VAR=500
+ ISC=0.0
+ NC=1.0
+ RB=7.0
+ RBM=7.0
+ RE=0.05
+ RC=0.8
+ CJE=29E-12
+ VJE=1.0
+ MJE=0.252
+ TF=636.62E-12
+ XTF=22.59
+ VTF=2.96
+ ITF=617.73E-3
+ PTF=0.0
+ CJC=16E-12
+ VJC=1.91
+ MJC=0.633
+ XCJC=0.5
+ TR=43.55E-9
+ CJS=0
+ VJS=0.7
+ MJS=0.5
+ XTB=2.46
+ EG=1.11
+ XTI=3.0
+ KF=0
+ AF=1
+ FC=0.5
Q2n2905_0 C B E model7 {area} {STATE} ic= {UIC(ic_vbe)},{UIC(ic_vce)} 
.model model7 pnp
+  is={IS}
+  bf={BF}
+  nf={NF}
+  vaf={VAF}
+  ikf={IKF}
+  ise={ISE}
+  ne={NE}
+  br={BR}
+  nr={NR}
+  var={VAR}
+  isc={ISC}
+  nc={NC}
+  rb={RB}
+  rbm={RBM}
+  re={RE}
+  rc={RC}
+  cje={CJE}
+  vje={VJE}
+  mje={MJE}
+  tf={TF}
+  xtf={XTF}
+  vtf={VTF}
+  itf={ITF}
+  ptf={PTF}
+  cjc={CJC}
+  vjc={VJC}
+  mjc={MJC}
+  xcjc={XCJC}
+  tr={TR}
+  cjs={CJS}
+  vjs={VJS}
+  mjs={MJS}
+  xtb={XTB}
+  eg={EG}
+  xti={XTI}
+  kf={KF}
+  af={AF}
+  fc={FC}
+ 
.ends  2n2905
*$ end model description: "2n2905"
*
*
*$ model description: "2n2905a"
*b Device model created by analog_uprev for 2n2905a on Fri Feb  9 00:08:30 IST 2001
.subckt 2n2905a C B E
+ params:
+ IC_VCE=1.10250E-36
+ IC_VBE=1.10250E-36
+ STATE=1
+ TEMP=0
+ AREA=1
+ STATE_FACTOR=0
+ IS=3.612E-14
+ BF=1.702E+02
+ NF=1.000E+00
+ VAF=4.971E+01
+ IKF=6.303E-01
+ ISE=6.399E-15
+ NE=1.547E+00
+ BR=1.801E+01
+ NR=1.001E+00
+ VAR=1.386E+01
+ IKR=2.630E-02
+ ISC=1.017E-12
+ NC=1.328E+00
+ IRB=1.000E-04
+ RE=1.090E+00
+ RC=1.457E+00
+ CJE=2.931E-11
+ VJE=8.000E-01
+ MJE=4.143E-01
+ TF=3.093E-10
+ XTF=3.373E+01
+ VTF=1.272E+00
+ ITF=9.051E-01
+ PTF=0
+ CJC=1.825E-11
+ VJC=3.000E-01
+ MJC=3.524E-01
+ XCJC=1.0
+ TR=7.394E-09
+ CJS=0
+ VJS=0.75
+ MJS=0
+ XTB=1.5
+ EG=1.11
+ XTI=3.0
+ KF=0
+ AF=1.0
+ FC=0.5
Q2n2905a_0 C B E model7 {area} {STATE} ic= {UIC(ic_vbe)},{UIC(ic_vce)} 
.model model7 pnp
+  is={IS}
+  bf={BF}
+  nf={NF}
+  vaf={VAF}
+  ikf={IKF}
+  ise={ISE}
+  ne={NE}
+  br={BR}
+  nr={NR}
+  var={VAR}
+  ikr={IKR}
+  isc={ISC}
+  nc={NC}
+  irb={IRB}
+  re={RE}
+  rc={RC}
+  cje={CJE}
+  vje={VJE}
+  mje={MJE}
+  tf={TF}
+  xtf={XTF}
+  vtf={VTF}
+  itf={ITF}
+  ptf={PTF}
+  cjc={CJC}
+  vjc={VJC}
+  mjc={MJC}
+  xcjc={XCJC}
+  tr={TR}
+  cjs={CJS}
+  vjs={VJS}
+  mjs={MJS}
+  xtb={XTB}
+  eg={EG}
+  xti={XTI}
+  kf={KF}
+  af={AF}
+  fc={FC}
+ 
.ends  2n2905a
*$ end model description: "2n2905a"
*
*
*$ model description: "2n2906"
*b Device model created by analog_uprev for 2n2906 on Fri Feb  9 00:08:30 IST 2001
.subckt 2n2906 C B E
+ params:
+ IC_VCE=1.10250E-36
+ IC_VBE=1.10250E-36
+ STATE=1
+ TEMP=0
+ AREA=1.0
+ STATE_FACTOR=0
+ IS=140.81E-15
+ BF=80
+ NF=1.073
+ VAF=125
+ IKF=0.5
+ ISE=964.74E-15
+ NE=1.74
+ BR=4.12
+ NR=1.073
+ VAR=500
+ ISC=0.0
+ NC=1.0
+ RB=7.0
+ RBM=7.0
+ RE=0.05
+ RC=0.8
+ CJE=29E-12
+ VJE=1.0
+ MJE=0.252
+ TF=636.62E-12
+ XTF=22.59
+ VTF=2.96
+ ITF=617.73E-3
+ PTF=0.0
+ CJC=16E-12
+ VJC=1.91
+ MJC=0.633
+ XCJC=0.5
+ TR=43.55E-9
+ CJS=0
+ VJS=0.7
+ MJS=0.5
+ XTB=2.46
+ EG=1.11
+ XTI=3.0
+ KF=0
+ AF=1
+ FC=0.5
Q2n2906_0 C B E model7 {area} {STATE} ic= {UIC(ic_vbe)},{UIC(ic_vce)} 
.model model7 pnp
+  is={IS}
+  bf={BF}
+  nf={NF}
+  vaf={VAF}
+  ikf={IKF}
+  ise={ISE}
+  ne={NE}
+  br={BR}
+  nr={NR}
+  var={VAR}
+  isc={ISC}
+  nc={NC}
+  rb={RB}
+  rbm={RBM}
+  re={RE}
+  rc={RC}
+  cje={CJE}
+  vje={VJE}
+  mje={MJE}
+  tf={TF}
+  xtf={XTF}
+  vtf={VTF}
+  itf={ITF}
+  ptf={PTF}
+  cjc={CJC}
+  vjc={VJC}
+  mjc={MJC}
+  xcjc={XCJC}
+  tr={TR}
+  cjs={CJS}
+  vjs={VJS}
+  mjs={MJS}
+  xtb={XTB}
+  eg={EG}
+  xti={XTI}
+  kf={KF}
+  af={AF}
+  fc={FC}
+ 
.ends  2n2906
*$ end model description: "2n2906"
*
*
*$ model description: "2n2906a"
*b Device model created by analog_uprev for 2n2906a on Fri Feb  9 00:08:30 IST 2001
.subckt 2n2906a C B E
+ params:
+ IC_VCE=1.10250E-36
+ IC_VBE=1.10250E-36
+ STATE=1
+ TEMP=0
+ AREA=1.0
+ STATE_FACTOR=0
+ IS=140.81E-15
+ BF=100
+ NF=1.073
+ VAF=125
+ IKF=0.5
+ ISE=964.74E-15
+ NE=1.74
+ BR=4.12
+ NR=1.073
+ VAR=500
+ ISC=0.0
+ NC=1.0
+ RB=7.0
+ RBM=7.0
+ RE=0.05
+ RC=0.8
+ CJE=29E-12
+ VJE=1.0
+ MJE=0.252
+ TF=636.62E-12
+ XTF=22.59
+ VTF=2.96
+ ITF=617.73E-3
+ PTF=0.0
+ CJC=16E-12
+ VJC=1.91
+ MJC=0.633
+ XCJC=0.5
+ TR=43.55E-9
+ CJS=0
+ VJS=0.7
+ MJS=0.5
+ XTB=2.46
+ EG=1.11
+ XTI=3.0
+ KF=0
+ AF=1
+ FC=0.5
Q2n2906a_0 C B E model7 {area} {STATE} ic= {UIC(ic_vbe)},{UIC(ic_vce)} 
.model model7 pnp
+  is={IS}
+  bf={BF}
+  nf={NF}
+  vaf={VAF}
+  ikf={IKF}
+  ise={ISE}
+  ne={NE}
+  br={BR}
+  nr={NR}
+  var={VAR}
+  isc={ISC}
+  nc={NC}
+  rb={RB}
+  rbm={RBM}
+  re={RE}
+  rc={RC}
+  cje={CJE}
+  vje={VJE}
+  mje={MJE}
+  tf={TF}
+  xtf={XTF}
+  vtf={VTF}
+  itf={ITF}
+  ptf={PTF}
+  cjc={CJC}
+  vjc={VJC}
+  mjc={MJC}
+  xcjc={XCJC}
+  tr={TR}
+  cjs={CJS}
+  vjs={VJS}
+  mjs={MJS}
+  xtb={XTB}
+  eg={EG}
+  xti={XTI}
+  kf={KF}
+  af={AF}
+  fc={FC}
+ 
.ends  2n2906a
*$ end model description: "2n2906a"
*
*
*$ model description: "2n2907"
*b Device model created by analog_uprev for 2n2907 on Fri Feb  9 00:08:30 IST 2001
.subckt 2n2907 C B E
+ params:
+ IC_VCE=1.10250E-36
+ IC_VBE=1.10250E-36
+ STATE=1
+ TEMP=0
+ AREA=1.0
+ STATE_FACTOR=0
+ IS=140.81E-15
+ BF=150
+ NF=1.073
+ VAF=125
+ IKF=0.5
+ ISE=964.74E-15
+ NE=1.74
+ BR=4.12
+ NR=1.073
+ VAR=500
+ ISC=0.0
+ NC=1.0
+ RB=7.0
+ RE=0.05
+ RC=0.8
+ CJE=29E-12
+ VJE=1.0
+ MJE=0.252
+ TF=636.62E-12
+ XTF=22.59
+ VTF=2.96
+ ITF=617.73E-3
+ PTF=0.0
+ CJC=16E-12
+ VJC=1.91
+ MJC=0.633
+ XCJC=0.5
+ TR=43.55E-9
+ CJS=0
+ VJS=0.7
+ MJS=0.5
+ XTB=2.46
+ EG=1.11
+ XTI=3.0
+ KF=0
+ AF=1
+ FC=0.5
Q2n2907_0 C B E model7 {area} {STATE} ic= {UIC(ic_vbe)},{UIC(ic_vce)} 
.model model7 pnp
+  is={IS}
+  bf={BF}
+  nf={NF}
+  vaf={VAF}
+  ikf={IKF}
+  ise={ISE}
+  ne={NE}
+  br={BR}
+  nr={NR}
+  var={VAR}
+  isc={ISC}
+  nc={NC}
+  rb={RB}
+  re={RE}
+  rc={RC}
+  cje={CJE}
+  vje={VJE}
+  mje={MJE}
+  tf={TF}
+  xtf={XTF}
+  vtf={VTF}
+  itf={ITF}
+  ptf={PTF}
+  cjc={CJC}
+  vjc={VJC}
+  mjc={MJC}
+  xcjc={XCJC}
+  tr={TR}
+  cjs={CJS}
+  vjs={VJS}
+  mjs={MJS}
+  xtb={XTB}
+  eg={EG}
+  xti={XTI}
+  kf={KF}
+  af={AF}
+  fc={FC}
+ 
.ends  2n2907
*$ end model description: "2n2907"
*
*
*$ model description: "2n2907a"
*b Device model created by analog_uprev for 2n2907a on Fri Feb  9 00:08:30 IST 2001
.subckt 2n2907a C B E
+ params:
+ IC_VCE=1.10250E-36
+ IC_VBE=1.10250E-36
+ STATE=1
+ TEMP=0
+ AREA=1.0
+ STATE_FACTOR=0
+ IS=140.81E-15
+ BF=160
+ NF=1.073
+ VAF=125
+ IKF=0.5
+ ISE=964.74E-15
+ NE=1.74
+ BR=4.12
+ NR=1.073
+ VAR=500
+ ISC=0.0
+ NC=1.0
+ RB=7.0
+ RBM=7.0
+ RE=0.05
+ RC=0.8
+ CJE=29E-12
+ VJE=1.0
+ MJE=0.252
+ TF=636.62E-12
+ XTF=22.59
+ VTF=2.96
+ ITF=617.73E-3
+ PTF=0.0
+ CJC=16E-12
+ VJC=1.91
+ MJC=0.633
+ XCJC=0.5
+ TR=43.55E-9
+ CJS=0
+ VJS=0.7
+ MJS=0.5
+ XTB=2.46
+ EG=1.11
+ XTI=3.0
+ KF=0
+ AF=1
+ FC=0.5
Q2n2907a_0 C B E model7 {area} {STATE} ic= {UIC(ic_vbe)},{UIC(ic_vce)} 
.model model7 pnp
+  is={IS}
+  bf={BF}
+  nf={NF}
+  vaf={VAF}
+  ikf={IKF}
+  ise={ISE}
+  ne={NE}
+  br={BR}
+  nr={NR}
+  var={VAR}
+  isc={ISC}
+  nc={NC}
+  rb={RB}
+  rbm={RBM}
+  re={RE}
+  rc={RC}
+  cje={CJE}
+  vje={VJE}
+  mje={MJE}
+  tf={TF}
+  xtf={XTF}
+  vtf={VTF}
+  itf={ITF}
+  ptf={PTF}
+  cjc={CJC}
+  vjc={VJC}
+  mjc={MJC}
+  xcjc={XCJC}
+  tr={TR}
+  cjs={CJS}
+  vjs={VJS}
+  mjs={MJS}
+  xtb={XTB}
+  eg={EG}
+  xti={XTI}
+  kf={KF}
+  af={AF}
+  fc={FC}
+ 
.ends  2n2907a
*$ end model description: "2n2907a"
*
*
*$ model description: "2n2944a"
*b Device model created by analog_uprev for 2n2944a on Fri Feb  9 00:08:30 IST 2001
.subckt 2n2944a C B E
+ params:
+ IC_VCE=1.10250E-36
+ IC_VBE=1.10250E-36
+ STATE=1
+ TEMP=0
+ AREA=1.0
+ STATE_FACTOR=0
+ IS=148.31E-15
+ BF=400
+ NF=1.0
+ VAF=12
+ IKF=65.7E-3
+ ISE=2.536E-12
+ NE=1.8147
+ BR=120
+ NR=1.0
+ VAR=50
+ IKR=0.05
+ ISC=1.345E-12
+ NC=1.5558
+ RB=47.4
+ IRB=0.3E-3
+ RBM=11.56
+ RE=2E-3
+ RC=0.3
+ CJE=10.65E-12
+ VJE=0.653
+ MJE=0.4539
+ TF=1.6E-9
+ XTF=1
+ VTF=4
+ ITF=0.5
+ PTF=0.0
+ CJC=13.8E-12
+ VJC=0.5
+ MJC=0.336
+ XCJC=0.5
+ TR=14.65E-9
+ CJS=0
+ VJS=0.7
+ MJS=0.5
+ XTB=1.034
+ EG=1.11
+ XTI=3.0
+ KF=0
+ AF=1
+ FC=0.5
Q2n2944a_0 C B E model7 {area} {STATE} ic= {UIC(ic_vbe)},{UIC(ic_vce)} 
.model model7 pnp
+  is={IS}
+  bf={BF}
+  nf={NF}
+  vaf={VAF}
+  ikf={IKF}
+  ise={ISE}
+  ne={NE}
+  br={BR}
+  nr={NR}
+  var={VAR}
+  ikr={IKR}
+  isc={ISC}
+  nc={NC}
+  rb={RB}
+  irb={IRB}
+  rbm={RBM}
+  re={RE}
+  rc={RC}
+  cje={CJE}
+  vje={VJE}
+  mje={MJE}
+  tf={TF}
+  xtf={XTF}
+  vtf={VTF}
+  itf={ITF}
+  ptf={PTF}
+  cjc={CJC}
+  vjc={VJC}
+  mjc={MJC}
+  xcjc={XCJC}
+  tr={TR}
+  cjs={CJS}
+  vjs={VJS}
+  mjs={MJS}
+  xtb={XTB}
+  eg={EG}
+  xti={XTI}
+  kf={KF}
+  af={AF}
+  fc={FC}
+ 
.ends  2n2944a
*$ end model description: "2n2944a"
*
*
*$ model description: "2n2945a"
*b Device model created by analog_uprev for 2n2945a on Fri Feb  9 00:08:30 IST 2001
.subckt 2n2945a C B E
+ params:
+ IC_VCE=1.10250E-36
+ IC_VBE=1.10250E-36
+ STATE=1
+ TEMP=0
+ AREA=1.0
+ STATE_FACTOR=0
+ IS=148.31E-15
+ BF=400
+ NF=1.0
+ VAF=12
+ IKF=65.7E-3
+ ISE=2.536E-12
+ NE=1.8147
+ BR=120
+ NR=1.0
+ VAR=50
+ IKR=0.05
+ ISC=1.345E-12
+ NC=1.5558
+ RB=47.4
+ IRB=0.3E-3
+ RBM=11.56
+ RE=2E-3
+ RC=0.3
+ CJE=10.65E-12
+ VJE=0.653
+ MJE=0.4539
+ TF=1.6E-9
+ XTF=1
+ VTF=4
+ ITF=0.5
+ PTF=0.0
+ CJC=13.8E-12
+ VJC=0.5
+ MJC=0.336
+ XCJC=0.5
+ TR=14.65E-9
+ CJS=0
+ VJS=0.7
+ MJS=0.5
+ XTB=1.034
+ EG=1.11
+ XTI=3.0
+ KF=0
+ AF=1
+ FC=0.5
Q2n2945a_0 C B E model7 {area} {STATE} ic= {UIC(ic_vbe)},{UIC(ic_vce)} 
.model model7 pnp
+  is={IS}
+  bf={BF}
+  nf={NF}
+  vaf={VAF}
+  ikf={IKF}
+  ise={ISE}
+  ne={NE}
+  br={BR}
+  nr={NR}
+  var={VAR}
+  ikr={IKR}
+  isc={ISC}
+  nc={NC}
+  rb={RB}
+  irb={IRB}
+  rbm={RBM}
+  re={RE}
+  rc={RC}
+  cje={CJE}
+  vje={VJE}
+  mje={MJE}
+  tf={TF}
+  xtf={XTF}
+  vtf={VTF}
+  itf={ITF}
+  ptf={PTF}
+  cjc={CJC}
+  vjc={VJC}
+  mjc={MJC}
+  xcjc={XCJC}
+  tr={TR}
+  cjs={CJS}
+  vjs={VJS}
+  mjs={MJS}
+  xtb={XTB}
+  eg={EG}
+  xti={XTI}
+  kf={KF}
+  af={AF}
+  fc={FC}
+ 
.ends  2n2945a
*$ end model description: "2n2945a"
*
*
*$ model description: "2n2946a"
*b Device model created by analog_uprev for 2n2946a on Fri Feb  9 00:08:30 IST 2001
.subckt 2n2946a C B E
+ params:
+ IC_VCE=1.10250E-36
+ IC_VBE=1.10250E-36
+ STATE=1
+ TEMP=0
+ AREA=1.0
+ STATE_FACTOR=0
+ IS=148.31E-15
+ BF=400
+ NF=1.0
+ VAF=12
+ IKF=65.7E-3
+ ISE=2.536E-12
+ NE=1.8147
+ BR=120
+ NR=1.0
+ VAR=50
+ IKR=0.05
+ ISC=1.345E-12
+ NC=1.5558
+ RB=47.4
+ IRB=0.3E-3
+ RBM=11.56
+ RE=2E-3
+ RC=0.3
+ CJE=10.65E-12
+ VJE=0.653
+ MJE=0.4539
+ TF=1.6E-9
+ XTF=1
+ VTF=4
+ ITF=0.5
+ PTF=0.0
+ CJC=13.8E-12
+ VJC=0.5
+ MJC=0.336
+ XCJC=0.5
+ TR=14.65E-9
+ CJS=0
+ VJS=0.7
+ MJS=0.5
+ XTB=1.034
+ EG=1.11
+ XTI=3.0
+ KF=0
+ AF=1
+ FC=0.5
Q2n2946a_0 C B E model7 {area} {STATE} ic= {UIC(ic_vbe)},{UIC(ic_vce)} 
.model model7 pnp
+  is={IS}
+  bf={BF}
+  nf={NF}
+  vaf={VAF}
+  ikf={IKF}
+  ise={ISE}
+  ne={NE}
+  br={BR}
+  nr={NR}
+  var={VAR}
+  ikr={IKR}
+  isc={ISC}
+  nc={NC}
+  rb={RB}
+  irb={IRB}
+  rbm={RBM}
+  re={RE}
+  rc={RC}
+  cje={CJE}
+  vje={VJE}
+  mje={MJE}
+  tf={TF}
+  xtf={XTF}
+  vtf={VTF}
+  itf={ITF}
+  ptf={PTF}
+  cjc={CJC}
+  vjc={VJC}
+  mjc={MJC}
+  xcjc={XCJC}
+  tr={TR}
+  cjs={CJS}
+  vjs={VJS}
+  mjs={MJS}
+  xtb={XTB}
+  eg={EG}
+  xti={XTI}
+  kf={KF}
+  af={AF}
+  fc={FC}
+ 
.ends  2n2946a
*$ end model description: "2n2946a"
*
*
*$ model description: "2n3244"
*b Device model created by analog_uprev for 2n3244 on Fri Feb  9 00:08:30 IST 2001
.subckt 2n3244 C B E
+ params:
+ IC_VCE=1.10250E-36
+ IC_VBE=1.10250E-36
+ STATE=1
+ TEMP=0
+ AREA=1.0
+ STATE_FACTOR=0
+ IS=10E-9
+ BF=100
+ NF=1.67
+ VAF=75
+ IKF=650E-3
+ ISE=0
+ NE=1.0
+ BR=1.374
+ NR=1.67
+ VAR=500
+ ISC=0
+ NC=1.0
+ RB=3.5
+ RBM=3.5
+ RE=0.05
+ RC=0.5
+ CJE=96E-12
+ VJE=0.3
+ MJE=0.282
+ TF=795.77E-12
+ XTF=0
+ ITF=0
+ PTF=0
+ CJC=57E-12
+ VJC=0.15
+ MJC=0.276
+ XCJC=0.5
+ TR=48E-9
+ CJS=0
+ VJS=0.7
+ MJS=0.5
+ XTB=1.62
+ EG=1.11
+ XTI=3.0
+ KF=0
+ AF=1
+ FC=0.5
Q2n3244_0 C B E model7 {area} {STATE} ic= {UIC(ic_vbe)},{UIC(ic_vce)} 
.model model7 pnp
+  is={IS}
+  bf={BF}
+  nf={NF}
+  vaf={VAF}
+  ikf={IKF}
+  ise={ISE}
+  ne={NE}
+  br={BR}
+  nr={NR}
+  var={VAR}
+  isc={ISC}
+  nc={NC}
+  rb={RB}
+  rbm={RBM}
+  re={RE}
+  rc={RC}
+  cje={CJE}
+  vje={VJE}
+  mje={MJE}
+  tf={TF}
+  xtf={XTF}
+  itf={ITF}
+  ptf={PTF}
+  cjc={CJC}
+  vjc={VJC}
+  mjc={MJC}
+  xcjc={XCJC}
+  tr={TR}
+  cjs={CJS}
+  vjs={VJS}
+  mjs={MJS}
+  xtb={XTB}
+  eg={EG}
+  xti={XTI}
+  kf={KF}
+  af={AF}
+  fc={FC}
+ 
.ends  2n3244
*$ end model description: "2n3244"
*
*
*$ model description: "2n3245"
*b Device model created by analog_uprev for 2n3245 on Fri Feb  9 00:08:30 IST 2001
.subckt 2n3245 C B E
+ params:
+ IC_VCE=1.10250E-36
+ IC_VBE=1.10250E-36
+ STATE=1
+ TEMP=0
+ AREA=1.0
+ STATE_FACTOR=0
+ IS=10E-9
+ BF=60
+ NF=1.67
+ VAF=75
+ IKF=650E-3
+ ISE=0
+ NE=1.0
+ BR=1.374
+ NR=1.67
+ VAR=500
+ ISC=0
+ NC=1.0
+ RB=3.5
+ RBM=3.5
+ RE=0.05
+ RC=0.5
+ CJE=96E-12
+ VJE=0.3
+ MJE=0.282
+ TF=909.46E-12
+ XTF=0
+ ITF=0
+ PTF=0
+ CJC=57E-12
+ VJC=0.15
+ MJC=0.276
+ XCJC=0.5
+ TR=48E-9
+ CJS=0
+ VJS=0.7
+ MJS=0.5
+ XTB=1.62
+ EG=1.11
+ XTI=3.0
+ KF=0
+ AF=1
+ FC=0.5
Q2n3245_0 C B E model7 {area} {STATE} ic= {UIC(ic_vbe)},{UIC(ic_vce)} 
.model model7 pnp
+  is={IS}
+  bf={BF}
+  nf={NF}
+  vaf={VAF}
+  ikf={IKF}
+  ise={ISE}
+  ne={NE}
+  br={BR}
+  nr={NR}
+  var={VAR}
+  isc={ISC}
+  nc={NC}
+  rb={RB}
+  rbm={RBM}
+  re={RE}
+  rc={RC}
+  cje={CJE}
+  vje={VJE}
+  mje={MJE}
+  tf={TF}
+  xtf={XTF}
+  itf={ITF}
+  ptf={PTF}
+  cjc={CJC}
+  vjc={VJC}
+  mjc={MJC}
+  xcjc={XCJC}
+  tr={TR}
+  cjs={CJS}
+  vjs={VJS}
+  mjs={MJS}
+  xtb={XTB}
+  eg={EG}
+  xti={XTI}
+  kf={KF}
+  af={AF}
+  fc={FC}
+ 
.ends  2n3245
*$ end model description: "2n3245"
*
*
*$ model description: "2n3249"
*b Device model created by analog_uprev for 2n3249 on Fri Feb  9 00:08:30 IST 2001
.subckt 2n3249 C B E
+ params:
+ IC_VCE=1.10250E-36
+ IC_VBE=1.10250E-36
+ STATE=1
+ TEMP=0
+ AREA=1.0
+ STATE_FACTOR=0
+ IS=727.74E-15
+ BF=150
+ NF=1.348
+ VAF=100
+ IKF=300E-3
+ ISE=0.0
+ NE=1.0
+ BR=1.87
+ NR=1.348
+ VAR=500
+ ISC=0.0
+ NC=1.0
+ RB=20
+ IRB=10E-6
+ RBM=5
+ RE=0.1
+ RC=2.94
+ CJE=9.0E-12
+ VJE=0.155
+ MJE=0.1854
+ TF=1.1684E-12
+ XTF=551.73
+ VTF=10.3213
+ ITF=0.002
+ PTF=0
+ CJC=14.7E-12
+ VJC=0.10
+ MJC=0.2032
+ XCJC=0.5
+ TR=3.375E-8
+ CJS=0.0
+ VJS=0.7
+ MJS=0.5
+ XTB=1.72
+ EG=1.11
+ XTI=3.0
+ KF=0
+ AF=1
+ FC=0.5
Q2n3249_0 C B E model7 {area} {STATE} ic= {UIC(ic_vbe)},{UIC(ic_vce)} 
.model model7 pnp
+  is={IS}
+  bf={BF}
+  nf={NF}
+  vaf={VAF}
+  ikf={IKF}
+  ise={ISE}
+  ne={NE}
+  br={BR}
+  nr={NR}
+  var={VAR}
+  isc={ISC}
+  nc={NC}
+  rb={RB}
+  irb={IRB}
+  rbm={RBM}
+  re={RE}
+  rc={RC}
+  cje={CJE}
+  vje={VJE}
+  mje={MJE}
+  tf={TF}
+  xtf={XTF}
+  vtf={VTF}
+  itf={ITF}
+  ptf={PTF}
+  cjc={CJC}
+  vjc={VJC}
+  mjc={MJC}
+  xcjc={XCJC}
+  tr={TR}
+  cjs={CJS}
+  vjs={VJS}
+  mjs={MJS}
+  xtb={XTB}
+  eg={EG}
+  xti={XTI}
+  kf={KF}
+  af={AF}
+  fc={FC}
+ 
.ends  2n3249
*$ end model description: "2n3249"
*
*
*$ model description: "2n3250"
*b Device model created by analog_uprev for 2n3250 on Fri Feb  9 00:08:30 IST 2001
.subckt 2n3250 C B E
+ params:
+ IC_VCE=1.10250E-36
+ IC_VBE=1.10250E-36
+ STATE=1
+ TEMP=0
+ AREA=1
+ STATE_FACTOR=0
+ IS=8.935E-15
+ BF=1.815E+02
+ NF=1.000E+00
+ VAF=3.578E+01
+ IKF=2.747E-02
+ ISE=1.656E-14
+ NE=1.357E+00
+ BR=4.896E+00
+ NR=1.006E+00
+ VAR=1.000E+01
+ IKR=3.856E-02
+ ISC=1.179E-11
+ NC=1.482E+00
+ IRB=1.000E-04
+ RE=1.199E+00
+ RC=2.549E+00
+ CJE=8.491E-12
+ VJE=8.000E-01
+ MJE=3.600E-01
+ TF=8.672E-11
+ XTF=8.797E+01
+ VTF=6.806E+01
+ ITF=5.163E-01
+ PTF=0
+ CJC=6.469E-12
+ VJC=3.000E-01
+ MJC=2.699E-01
+ XCJC=1.0
+ TR=5.729E-08
+ CJS=0
+ VJS=0.75
+ MJS=0
+ XTB=1.5
+ EG=1.11
+ XTI=3.0
+ KF=0
+ AF=1.0
+ FC=0.5
Q2n3250_0 C B E model7 {area} {STATE} ic= {UIC(ic_vbe)},{UIC(ic_vce)} 
.model model7 pnp
+  is={IS}
+  bf={BF}
+  nf={NF}
+  vaf={VAF}
+  ikf={IKF}
+  ise={ISE}
+  ne={NE}
+  br={BR}
+  nr={NR}
+  var={VAR}
+  ikr={IKR}
+  isc={ISC}
+  nc={NC}
+  irb={IRB}
+  re={RE}
+  rc={RC}
+  cje={CJE}
+  vje={VJE}
+  mje={MJE}
+  tf={TF}
+  xtf={XTF}
+  vtf={VTF}
+  itf={ITF}
+  ptf={PTF}
+  cjc={CJC}
+  vjc={VJC}
+  mjc={MJC}
+  xcjc={XCJC}
+  tr={TR}
+  cjs={CJS}
+  vjs={VJS}
+  mjs={MJS}
+  xtb={XTB}
+  eg={EG}
+  xti={XTI}
+  kf={KF}
+  af={AF}
+  fc={FC}
+ 
.ends  2n3250
*$ end model description: "2n3250"
*
*
*$ model description: "2n3250a"
*b Device model created by analog_uprev for 2n3250a on Fri Feb  9 00:08:30 IST 2001
.subckt 2n3250a C B E
+ params:
+ IC_VCE=1.10250E-36
+ IC_VBE=1.10250E-36
+ STATE=1
+ TEMP=0
+ AREA=1.0
+ STATE_FACTOR=0
+ IS=26.30E-15
+ BF=80
+ NF=1
+ VAF=100
+ IKF=80E-3
+ ISE=0.57E-15
+ NE=1.105
+ BR=0.1
+ NR=1
+ VAR=100
+ IKR=0.08
+ ISC=0
+ NC=1
+ RB=175
+ IRB=1.5E-3
+ RBM=64
+ RE=0.1
+ RC=2.4
+ CJE=5.7E-12
+ VJE=0.5
+ MJE=0.271
+ TF=636E-12
+ XTF=0.5
+ VTF=20
+ ITF=0.1
+ PTF=0
+ CJC=9.21E-12
+ VJC=0.5
+ MJC=0.342
+ XCJC=0.5
+ TR=2.5E-6
+ CJS=0
+ VJS=0.7
+ MJS=0.5
+ XTB=1.623
+ EG=1.11
+ XTI=3.0
+ KF=0
+ AF=1
+ FC=0.5
Q2n3250a_0 C B E model7 {area} {STATE} ic= {UIC(ic_vbe)},{UIC(ic_vce)} 
.model model7 pnp
+  is={IS}
+  bf={BF}
+  nf={NF}
+  vaf={VAF}
+  ikf={IKF}
+  ise={ISE}
+  ne={NE}
+  br={BR}
+  nr={NR}
+  var={VAR}
+  ikr={IKR}
+  isc={ISC}
+  nc={NC}
+  rb={RB}
+  irb={IRB}
+  rbm={RBM}
+  re={RE}
+  rc={RC}
+  cje={CJE}
+  vje={VJE}
+  mje={MJE}
+  tf={TF}
+  xtf={XTF}
+  vtf={VTF}
+  itf={ITF}
+  ptf={PTF}
+  cjc={CJC}
+  vjc={VJC}
+  mjc={MJC}
+  xcjc={XCJC}
+  tr={TR}
+  cjs={CJS}
+  vjs={VJS}
+  mjs={MJS}
+  xtb={XTB}
+  eg={EG}
+  xti={XTI}
+  kf={KF}
+  af={AF}
+  fc={FC}
+ 
.ends  2n3250a
*$ end model description: "2n3250a"
*
*
*$ model description: "2n3251"
*b Device model created by analog_uprev for 2n3251 on Fri Feb  9 00:08:30 IST 2001
.subckt 2n3251 C B E
+ params:
+ IC_VCE=1.10250E-36
+ IC_VBE=1.10250E-36
+ STATE=1
+ TEMP=0
+ AREA=1.0
+ STATE_FACTOR=0
+ IS=26.30E-15
+ BF=180
+ NF=1
+ VAF=100
+ IKF=80E-3
+ ISE=0.57E-15
+ NE=1.105
+ BR=0.1
+ NR=1
+ VAR=100
+ IKR=0.08
+ ISC=0
+ NC=1
+ RB=175
+ IRB=1.5E-3
+ RBM=64
+ RE=0.1
+ RC=2.4
+ CJE=5.7E-12
+ VJE=0.5
+ MJE=0.271
+ TF=636E-12
+ XTF=0.5
+ VTF=20
+ ITF=0.1
+ PTF=0
+ CJC=9.21E-12
+ VJC=0.5
+ MJC=0.342
+ XCJC=0.5
+ TR=2.5E-6
+ CJS=0
+ VJS=0.7
+ MJS=0.5
+ XTB=1.623
+ EG=1.11
+ XTI=3.0
+ KF=0
+ AF=1
+ FC=0.5
Q2n3251_0 C B E model7 {area} {STATE} ic= {UIC(ic_vbe)},{UIC(ic_vce)} 
.model model7 pnp
+  is={IS}
+  bf={BF}
+  nf={NF}
+  vaf={VAF}
+  ikf={IKF}
+  ise={ISE}
+  ne={NE}
+  br={BR}
+  nr={NR}
+  var={VAR}
+  ikr={IKR}
+  isc={ISC}
+  nc={NC}
+  rb={RB}
+  irb={IRB}
+  rbm={RBM}
+  re={RE}
+  rc={RC}
+  cje={CJE}
+  vje={VJE}
+  mje={MJE}
+  tf={TF}
+  xtf={XTF}
+  vtf={VTF}
+  itf={ITF}
+  ptf={PTF}
+  cjc={CJC}
+  vjc={VJC}
+  mjc={MJC}
+  xcjc={XCJC}
+  tr={TR}
+  cjs={CJS}
+  vjs={VJS}
+  mjs={MJS}
+  xtb={XTB}
+  eg={EG}
+  xti={XTI}
+  kf={KF}
+  af={AF}
+  fc={FC}
+ 
.ends  2n3251
*$ end model description: "2n3251"
*
*
*$ model description: "2n3251a"
*b Device model created by analog_uprev for 2n3251a on Fri Feb  9 00:08:30 IST 2001
.subckt 2n3251a C B E
+ params:
+ IC_VCE=1.10250E-36
+ IC_VBE=1.10250E-36
+ STATE=1
+ TEMP=0
+ AREA=1
+ STATE_FACTOR=0
+ IS=1.002E-14
+ BF=1.759E+02
+ NF=1.000E+00
+ VAF=3.478E+01
+ IKF=2.706E-02
+ ISE=5.680E-14
+ NE=1.522E+00
+ BR=4.309E+00
+ NR=1.005E+00
+ VAR=1.000E+01
+ IKR=1.600E-02
+ ISC=5.232E-13
+ NC=1.266E+00
+ IRB=1.000E-04
+ RE=1.655E+00
+ RC=3.630E+00
+ CJE=7.666E-12
+ VJE=8.000E-01
+ MJE=3.659E-01
+ TF=1.313E-10
+ XTF=6.892E+01
+ VTF=1.650E+01
+ ITF=5.319E-01
+ PTF=0
+ CJC=6.727E-12
+ VJC=3.015E-01
+ MJC=2.456E-01
+ XCJC=1.0
+ TR=7.438E-08
+ CJS=0
+ VJS=0.75
+ MJS=0
+ XTB=1.5
+ EG=1.11
+ XTI=3.0
+ KF=0
+ AF=1.0
+ FC=0.5
Q2n3251a_0 C B E model7 {area} {STATE} ic= {UIC(ic_vbe)},{UIC(ic_vce)} 
.model model7 pnp
+  is={IS}
+  bf={BF}
+  nf={NF}
+  vaf={VAF}
+  ikf={IKF}
+  ise={ISE}
+  ne={NE}
+  br={BR}
+  nr={NR}
+  var={VAR}
+  ikr={IKR}
+  isc={ISC}
+  nc={NC}
+  irb={IRB}
+  re={RE}
+  rc={RC}
+  cje={CJE}
+  vje={VJE}
+  mje={MJE}
+  tf={TF}
+  xtf={XTF}
+  vtf={VTF}
+  itf={ITF}
+  ptf={PTF}
+  cjc={CJC}
+  vjc={VJC}
+  mjc={MJC}
+  xcjc={XCJC}
+  tr={TR}
+  cjs={CJS}
+  vjs={VJS}
+  mjs={MJS}
+  xtb={XTB}
+  eg={EG}
+  xti={XTI}
+  kf={KF}
+  af={AF}
+  fc={FC}
+ 
.ends  2n3251a
*$ end model description: "2n3251a"
*
*
*$ model description: "2n3485"
*b Device model created by analog_uprev for 2n3485 on Fri Feb  9 00:08:30 IST 2001
.subckt 2n3485 C B E
+ params:
+ IC_VCE=1.10250E-36
+ IC_VBE=1.10250E-36
+ STATE=1
+ TEMP=0
+ AREA=1.0
+ STATE_FACTOR=0
+ IS=140.81E-15
+ BF=80
+ NF=1.073
+ VAF=125
+ IKF=0.5
+ ISE=964.74E-15
+ NE=1.74
+ BR=4.12
+ NR=1.073
+ VAR=500
+ ISC=0.0
+ NC=1.0
+ RB=7.0
+ RBM=7.0
+ RE=0.05
+ RC=0.8
+ CJE=29E-12
+ VJE=1.0
+ MJE=0.252
+ TF=636.62E-12
+ XTF=22.59
+ VTF=2.96
+ ITF=617.73E-3
+ PTF=0.0
+ CJC=16E-12
+ VJC=1.91
+ MJC=0.633
+ XCJC=0.5
+ TR=43.55E-9
+ CJS=0
+ VJS=0.7
+ MJS=0.5
+ XTB=2.46
+ EG=1.11
+ XTI=3.0
+ KF=0
+ AF=1
+ FC=0.5
Q2n3485_0 C B E model7 {area} {STATE} ic= {UIC(ic_vbe)},{UIC(ic_vce)} 
.model model7 pnp
+  is={IS}
+  bf={BF}
+  nf={NF}
+  vaf={VAF}
+  ikf={IKF}
+  ise={ISE}
+  ne={NE}
+  br={BR}
+  nr={NR}
+  var={VAR}
+  isc={ISC}
+  nc={NC}
+  rb={RB}
+  rbm={RBM}
+  re={RE}
+  rc={RC}
+  cje={CJE}
+  vje={VJE}
+  mje={MJE}
+  tf={TF}
+  xtf={XTF}
+  vtf={VTF}
+  itf={ITF}
+  ptf={PTF}
+  cjc={CJC}
+  vjc={VJC}
+  mjc={MJC}
+  xcjc={XCJC}
+  tr={TR}
+  cjs={CJS}
+  vjs={VJS}
+  mjs={MJS}
+  xtb={XTB}
+  eg={EG}
+  xti={XTI}
+  kf={KF}
+  af={AF}
+  fc={FC}
+ 
.ends  2n3485
*$ end model description: "2n3485"
*
*
*$ model description: "2n3485a"
*b Device model created by analog_uprev for 2n3485a on Fri Feb  9 00:08:30 IST 2001
.subckt 2n3485a C B E
+ params:
+ IC_VCE=1.10250E-36
+ IC_VBE=1.10250E-36
+ STATE=1
+ TEMP=0
+ AREA=1.0
+ STATE_FACTOR=0
+ IS=140.81E-15
+ BF=100
+ NF=1.073
+ VAF=125
+ IKF=0.5
+ ISE=964.74E-15
+ NE=1.74
+ BR=4.12
+ NR=1.073
+ VAR=500
+ ISC=0.0
+ NC=1.0
+ RB=7.0
+ RBM=7.0
+ RE=0.05
+ RC=0.8
+ CJE=29E-12
+ VJE=1.0
+ MJE=0.252
+ TF=636.62E-12
+ XTF=22.59
+ VTF=2.96
+ ITF=617.73E-3
+ PTF=0.0
+ CJC=16E-12
+ VJC=1.91
+ MJC=0.633
+ XCJC=0.5
+ TR=43.55E-9
+ CJS=0
+ VJS=0.7
+ MJS=0.5
+ XTB=2.46
+ EG=1.11
+ XTI=3.0
+ KF=0
+ AF=1
+ FC=0.5
Q2n3485a_0 C B E model7 {area} {STATE} ic= {UIC(ic_vbe)},{UIC(ic_vce)} 
.model model7 pnp
+  is={IS}
+  bf={BF}
+  nf={NF}
+  vaf={VAF}
+  ikf={IKF}
+  ise={ISE}
+  ne={NE}
+  br={BR}
+  nr={NR}
+  var={VAR}
+  isc={ISC}
+  nc={NC}
+  rb={RB}
+  rbm={RBM}
+  re={RE}
+  rc={RC}
+  cje={CJE}
+  vje={VJE}
+  mje={MJE}
+  tf={TF}
+  xtf={XTF}
+  vtf={VTF}
+  itf={ITF}
+  ptf={PTF}
+  cjc={CJC}
+  vjc={VJC}
+  mjc={MJC}
+  xcjc={XCJC}
+  tr={TR}
+  cjs={CJS}
+  vjs={VJS}
+  mjs={MJS}
+  xtb={XTB}
+  eg={EG}
+  xti={XTI}
+  kf={KF}
+  af={AF}
+  fc={FC}
+ 
.ends  2n3485a
*$ end model description: "2n3485a"
*
*
*$ model description: "2n3486"
*b Device model created by analog_uprev for 2n3486 on Fri Feb  9 00:08:30 IST 2001
.subckt 2n3486 C B E
+ params:
+ IC_VCE=1.10250E-36
+ IC_VBE=1.10250E-36
+ STATE=1
+ TEMP=0
+ AREA=1.0
+ STATE_FACTOR=0
+ IS=140.81E-15
+ BF=150
+ NF=1.073
+ VAF=125
+ IKF=0.5
+ ISE=964.74E-15
+ NE=1.74
+ BR=4.12
+ NR=1.073
+ VAR=500
+ ISC=0.0
+ NC=1.0
+ RB=7.0
+ RBM=7.0
+ RE=0.05
+ RC=0.8
+ CJE=29E-12
+ VJE=1.0
+ MJE=0.252
+ TF=636.62E-12
+ XTF=22.59
+ VTF=2.96
+ ITF=617.73E-3
+ PTF=0.0
+ CJC=16E-12
+ VJC=1.91
+ MJC=0.633
+ XCJC=0.5
+ TR=43.55E-9
+ CJS=0
+ VJS=0.7
+ MJS=0.5
+ XTB=2.46
+ EG=1.11
+ XTI=3.0
+ KF=0
+ AF=1
+ FC=0.5
Q2n3486_0 C B E model7 {area} {STATE} ic= {UIC(ic_vbe)},{UIC(ic_vce)} 
.model model7 pnp
+  is={IS}
+  bf={BF}
+  nf={NF}
+  vaf={VAF}
+  ikf={IKF}
+  ise={ISE}
+  ne={NE}
+  br={BR}
+  nr={NR}
+  var={VAR}
+  isc={ISC}
+  nc={NC}
+  rb={RB}
+  rbm={RBM}
+  re={RE}
+  rc={RC}
+  cje={CJE}
+  vje={VJE}
+  mje={MJE}
+  tf={TF}
+  xtf={XTF}
+  vtf={VTF}
+  itf={ITF}
+  ptf={PTF}
+  cjc={CJC}
+  vjc={VJC}
+  mjc={MJC}
+  xcjc={XCJC}
+  tr={TR}
+  cjs={CJS}
+  vjs={VJS}
+  mjs={MJS}
+  xtb={XTB}
+  eg={EG}
+  xti={XTI}
+  kf={KF}
+  af={AF}
+  fc={FC}
+ 
.ends  2n3486
*$ end model description: "2n3486"
*
*
*$ model description: "2n3486a"
*b Device model created by analog_uprev for 2n3486a on Fri Feb  9 00:08:30 IST 2001
.subckt 2n3486a C B E
+ params:
+ IC_VCE=1.10250E-36
+ IC_VBE=1.10250E-36
+ STATE=1
+ TEMP=0
+ AREA=1.0
+ STATE_FACTOR=0
+ IS=140.81E-15
+ BF=160
+ NF=1.073
+ VAF=125
+ IKF=0.5
+ ISE=964.74E-15
+ NE=1.74
+ BR=4.12
+ NR=1.073
+ VAR=500
+ ISC=0.0
+ NC=1.0
+ RB=7.0
+ RBM=7.0
+ RE=0.05
+ RC=0.8
+ CJE=29E-12
+ VJE=1.0
+ MJE=0.252
+ TF=636.62E-12
+ XTF=22.59
+ VTF=2.96
+ ITF=617.73E-3
+ PTF=0.0
+ CJC=16E-12
+ VJC=1.91
+ MJC=0.633
+ XCJC=0.5
+ TR=43.55E-9
+ CJS=0